TLTK/Dynamic Thay Huy/Vi du minh hoa/Vd 04 - Power oscillations/Four Generator System/2.Benchmark_4ger_ESST1A_noTGR_PSSmod_2015/Benchmark_4ger_33_2015.RAW
 0,    100.00, 33, 0, 1, 60.00       / September 03, 2016 23:19:10; Simulator Version 20 Beta; BuildDate 2016_7_25
IEEE BENCHMARK SYSTEM VII
HTTP://WWW.SEL.EESC.USP.BR/IEEE/
    1,'GEN G1      ',  20.0000,2,   1,   1,   1,1.03000,  20.0701, 1.10000, 0.90000, 1.10000, 0.90000
    2,'GEN G2      ',  20.0000,2,   1,   1,   1,1.01000,  10.3058, 1.10000, 0.90000, 1.10000, 0.90000
    3,'GEN G3      ',  20.0000,3,   2,   1,   1,1.03000,  -7.0000, 1.10000, 0.90000, 1.10000, 0.90000
    4,'GEN G4      ',  20.0000,2,   2,   1,   1,1.01000, -17.1920, 1.10000, 0.90000, 1.10000, 0.90000
    5,'G1          ', 230.0000,1,   1,   1,   1,1.00646,  13.6082, 1.10000, 0.90000, 1.10000, 0.90000
    6,'G2          ', 230.0000,1,   1,   1,   1,0.97813,   3.5237, 1.10000, 0.90000, 1.10000, 0.90000
    7,'LOAD A      ', 230.0000,1,   1,   1,   1,0.96102,  -4.8854, 1.10000, 0.90000, 1.10000, 0.90000
    8,'MID POINT   ', 230.0000,1,   1,   1,   1,0.94862, -18.7552, 1.10000, 0.90000, 1.10000, 0.90000
    9,'LOAD B      ', 230.0000,1,   2,   1,   1,0.97137, -32.3524, 1.10000, 0.90000, 1.10000, 0.90000
   10,'G4          ', 230.0000,1,   2,   1,   1,0.98346, -23.9372, 1.10000, 0.90000, 1.10000, 0.90000
   11,'G3          ', 230.0000,1,   2,   1,   1,1.00826, -13.6270, 1.10000, 0.90000, 1.10000, 0.90000
0 / END OF BUS DATA, BEGIN LOAD DATA
    7,'1 ',1,   1,   1,   967.000,   100.000,     0.000,     0.000,     0.000,     0.000,   1,1
    8,'1 ',0,   1,   1,     0.000,    50.000,     0.000,     0.000,     0.000,     0.000,   1,1
    9,'1 ',1,   2,   1,  1767.000,   100.000,     0.000,     0.000,     0.000,     0.000,   1,1
0 / END OF LOAD DATA, BEGIN FIXED SHUNT DATA
     7,'1 ', 1,     0.000,   200.000
     9,'1 ', 1,     0.000,   350.000
0 / END OF FIXED SHUNT DATA, BEGIN GENERATOR DATA
    1,'1 ',   700.000,   185.006,   474.000,  -200.000,1.03000,    0,   900.000,   0.00000,   0.25000,   0.00000,   0.00000,1.00000,1,  100.0,   765.000,     0.000,   1,1.0000,   0,1.0000,   0,1.0000,   0,1.0000,0, 1.0000
    2,'1 ',   700.000,   234.588,   474.000,  -200.000,1.01000,    0,   900.000,   0.00000,   0.25000,   0.00000,   0.00000,1.00000,1,  100.0,   765.000,     0.000,   1,1.0000,   0,1.0000,   0,1.0000,   0,1.0000,0, 1.0000
    3,'1 ',   719.095,   176.003,   474.000,  -200.000,1.03000,    0,   900.000,   0.00000,   0.25000,   0.00000,   0.00000,1.00000,1,  100.0,   765.000,     0.000,   1,1.0000,   0,1.0000,   0,1.0000,   0,1.0000,0, 1.0000
    4,'1 ',   700.000,   202.057,   474.000,  -200.000,1.01000,    0,   900.000,   0.00000,   0.25000,   0.00000,   0.00000,1.00000,1,  100.0,   765.000,     0.000,   1,1.0000,   0,1.0000,   0,1.0000,   0,1.0000,0, 1.0000
0 / END OF GENERATOR DATA, BEGIN BRANCH DATA
    5,     6,'1 ', 0.00500, 0.05000,0.02187, 750.00, 750.00,   0.00,  0.00000,  0.00000,  0.00000,  0.00000,1,1,  25.0,   1,1.0000,   0,1.0000,   0,1.0000,   0,1.0000
    5,     6,'2 ', 0.00500, 0.05000,0.02187, 750.00, 750.00,   0.00,  0.00000,  0.00000,  0.00000,  0.00000,1,1,  25.0,   1,1.0000,   0,1.0000,   0,1.0000,   0,1.0000
    6,     7,'1 ', 0.00300, 0.03000,0.00583, 700.00, 700.00,   0.00,  0.00000,  0.00000,  0.00000,  0.00000,1,1,  10.0,   1,1.0000,   0,1.0000,   0,1.0000,   0,1.0000
    6,     7,'2 ', 0.00300, 0.03000,0.00583, 700.00, 700.00,   0.00,  0.00000,  0.00000,  0.00000,  0.00000,1,1,  10.0,   1,1.0000,   0,1.0000,   0,1.0000,   0,1.0000
    6,     7,'3 ', 0.00300, 0.03000,0.00583, 700.00, 700.00,   0.00,  0.00000,  0.00000,  0.00000,  0.00000,1,1,  10.0,   1,1.0000,   0,1.0000,   0,1.0000,   0,1.0000
    7,     8,'1 ', 0.01100, 0.11000,0.19250, 400.00, 400.00,   0.00,  0.00000,  0.00000,  0.00000,  0.00000,1,1, 110.0,   1,1.0000,   0,1.0000,   0,1.0000,   0,1.0000
    7,     8,'2 ', 0.01100, 0.11000,0.19250, 400.00, 400.00,   0.00,  0.00000,  0.00000,  0.00000,  0.00000,1,1, 110.0,   1,1.0000,   0,1.0000,   0,1.0000,   0,1.0000
    8,     9,'1 ', 0.01100, 0.11000,0.19250, 400.00, 400.00,   0.00,  0.00000,  0.00000,  0.00000,  0.00000,1,1, 110.0,   1,1.0000,   0,1.0000,   0,1.0000,   0,1.0000
    8,     9,'2 ', 0.01100, 0.11000,0.19250, 400.00, 400.00,   0.00,  0.00000,  0.00000,  0.00000,  0.00000,1,1, 110.0,   1,1.0000,   0,1.0000,   0,1.0000,   0,1.0000
    9,    10,'1 ', 0.00300, 0.03000,0.00583, 700.00, 700.00,   0.00,  0.00000,  0.00000,  0.00000,  0.00000,1,1,  10.0,   1,1.0000,   0,1.0000,   0,1.0000,   0,1.0000
    9,    10,'2 ', 0.00300, 0.03000,0.00583, 700.00, 700.00,   0.00,  0.00000,  0.00000,  0.00000,  0.00000,1,1,  10.0,   1,1.0000,   0,1.0000,   0,1.0000,   0,1.0000
    9,    10,'3 ', 0.00300, 0.03000,0.00583, 700.00, 700.00,   0.00,  0.00000,  0.00000,  0.00000,  0.00000,1,1,  10.0,   1,1.0000,   0,1.0000,   0,1.0000,   0,1.0000
   10,    11,'1 ', 0.00500, 0.05000,0.02187, 750.00, 750.00,   0.00,  0.00000,  0.00000,  0.00000,  0.00000,1,1,  25.0,   1,1.0000,   0,1.0000,   0,1.0000,   0,1.0000
   10,    11,'2 ', 0.00500, 0.05000,0.02187, 750.00, 750.00,   0.00,  0.00000,  0.00000,  0.00000,  0.00000,1,1,  25.0,   1,1.0000,   0,1.0000,   0,1.0000,   0,1.0000
0 / END OF BRANCH DATA, BEGIN TRANSFORMER DATA
    5,    1,    0,'1 ',1,2,1,  0.00000,  0.00000,1,'G1 STEP UP  ',1,   1,1.0000,   0,1.0000,   0,1.0000,   0,1.0000
 0.00000, 0.15000, 900.00
1.00000,230.000,   0.000, 900.00,   0.00,   0.00,0,     0, 1.10000, 0.90000, 1.10000, 0.90000, 33, 0, 0.00000, 0.00000
1.00000, 20.000
    6,    2,    0,'1 ',1,2,1,  0.00000,  0.00000,1,'G2 STEP UP  ',1,   1,1.0000,   0,1.0000,   0,1.0000,   0,1.0000
 0.00000, 0.15000, 900.00
1.00000,230.000,   0.000, 900.00,   0.00,   0.00,0,     0, 1.10000, 0.90000, 1.10000, 0.90000, 33, 0, 0.00000, 0.00000
1.00000, 20.000
   11,    3,    0,'1 ',1,2,1,  0.00000,  0.00000,1,'G3 STEP UP  ',1,   1,1.0000,   0,1.0000,   0,1.0000,   0,1.0000
 0.00000, 0.15000, 900.00
1.00000,230.000,   0.000, 900.00,   0.00,   0.00,0,     0, 1.10000, 0.90000, 1.10000, 0.90000, 33, 0, 0.00000, 0.00000
1.00000, 20.000
   10,    4,    0,'1 ',1,2,1,  0.00000,  0.00000,1,'G4 STEP UP  ',1,   1,1.0000,   0,1.0000,   0,1.0000,   0,1.0000
 0.00000, 0.15000, 900.00
1.00000,230.000,   0.000, 900.00,   0.00,   0.00,0,     0, 1.10000, 0.90000, 1.10000, 0.90000, 33, 0, 0.00000, 0.00000
1.00000, 20.000
0 / END OF TRANSFORMER DATA, BEGIN AREA DATA
   1,    1,   400.000,     5.000,'LEFT        '
   2,    3,  -400.000,     5.000,'RIGHT       '
0 / END OF AREA DATA, BEGIN TWO-TERMINAL DC DATA
0 / END OF TWO-TERMINAL DC DATA, BEGIN VOLTAGE SOURCE CONVERTER DATA
0 / END OF VOLTAGE SOURCE CONVERTER DATA, BEGIN IMPEDANCE CORRECTION DATA
0 / END OF IMPEDANCE CORRECTION DATA, BEGIN MULTI-TERMINAL DC DATA
0 / END OF MULTI-TERMINAL DC DATA, BEGIN MULTI-SECTION LINE DATA
0 / END OF MULTI-SECTION LINE DATA, BEGIN ZONE DATA
   1,'1       '
0 / END OF ZONE DATA, BEGIN INTER-AREA TRANSFER DATA
0 / END OF INTER-AREA TRANSFER DATA, BEGIN OWNER DATA
    1,'1'
0 / END OF OWNER DATA, BEGIN FACTS CONTROL DEVICE DATA
0 / END OF FACTS CONTROL DEVICE DATA, BEGIN SWITCHED SHUNT DATA
0 /END OF SWITCHED SHUNT DATA, BEGIN GNE DEVICE DATA
0 /END OF GNE DEVICE DATA
Q
